
**** 02/07/21 13:43:27 ********* PSpice 9.2 (Mar 2000) ******** ID# 1 ********

 ** Profile: "SCHEMATIC1-Part_4_2"  [ E:\INSTALLATION ROOT\ORCAD 9.2\Projects\EC_Project_3_Part_4\ec_project_3_part_4-SCHEMATIC1-Part


 ****     CIRCUIT DESCRIPTION


******************************************************************************




** Creating circuit file "ec_project_3_part_4-SCHEMATIC1-Part_4_2.sim.cir" 
** WARNING: THIS AUTOMATICALLY GENERATED FILE MAY BE OVERWRITTEN BY SUBSEQUENT SIMULATIONS

*Libraries: 
* Local Libraries :
* From [PSPICE NETLIST] section of e:\installation root\orcad 9.2\PSpice\PSpice.ini file:
.lib "nom.lib" 

*Analysis directives: 
.DC LIN PARAM R4 1 10 1 
.PROBE V(*) I(*) W(*) D(*) NOISE(*) 
.INC ".\ec_project_3_part_4-SCHEMATIC1.net" 



**** INCLUDING ec_project_3_part_4-SCHEMATIC1.net ****
* source EC_PROJECT_3_PART_4
R_R4         0 N00081  {R}  
R_R5         N00299 N00179  4  
E_E1         N00299 0 N00081 0 3
V_V1         N00081 0 DC 0Vdc AC 30 
C_C1         N00081 N00179  0.2  
L_L1         0 N00179  2  
.PARAM  R=1

**** RESUMING ec_project_3_part_4-SCHEMATIC1-Part_4_2.sim.cir ****
.END

ERROR -- Undefined parameter: R4