
**** 02/07/21 15:27:22 ********* PSpice 9.2 (Mar 2000) ******** ID# 1 ********

 ** Profile: "SCHEMATIC1-Part_4_2"  [ e:\installation root\orcad 9.2\projects\ec_project_3_part_4\ec_project_3_part_4-schematic1-part


 ****     CIRCUIT DESCRIPTION


******************************************************************************




** Creating circuit file "ec_project_3_part_4-schematic1-part_4_2.sim.cir" 
** WARNING: THIS AUTOMATICALLY GENERATED FILE MAY BE OVERWRITTEN BY SUBSEQUENT SIMULATIONS

*Libraries: 
* Local Libraries :
* From [PSPICE NETLIST] section of e:\installation root\orcad 9.2\PSpice\PSpice.ini file:
.lib "nom.lib" 

*Analysis directives: 
.AC DEC 1000 0.001 1
.PROBE V(*) I(*) W(*) D(*) NOISE(*) 
.INC ".\ec_project_3_part_4-SCHEMATIC1.net" 



**** INCLUDING ec_project_3_part_4-SCHEMATIC1.net ****
* source EC_PROJECT_3_PART_4
R_R4         0 N00081  2  
R_R5         N00299 N00179  4  
E_E1         N00299 0 N00081 0 3
V_V1         N00081 0 DC 0Vdc AC 30Aac 
C_C1         N00081 N00179  0.2  
L_L1         0 N00179  2  

**** RESUMING ec_project_3_part_4-schematic1-part_4_2.sim.cir ****
.END

**** 02/07/21 15:27:22 ********* PSpice 9.2 (Mar 2000) ******** ID# 1 ********

 ** Profile: "SCHEMATIC1-Part_4_2"  [ e:\installation root\orcad 9.2\projects\ec_project_3_part_4\ec_project_3_part_4-schematic1-part


 ****     SMALL SIGNAL BIAS SOLUTION       TEMPERATURE =   27.000 DEG C


******************************************************************************



 NODE   VOLTAGE     NODE   VOLTAGE     NODE   VOLTAGE     NODE   VOLTAGE


(N00081)    0.0000 (N00179)    0.0000 (N00299)    0.0000 




    VOLTAGE SOURCE CURRENTS
    NAME         CURRENT

    V_V1         0.000E+00

    TOTAL POWER DISSIPATION   0.00E+00  WATTS



          JOB CONCLUDED

          TOTAL JOB TIME             .13
